dynawo/sources/Modeler/DataInterface/PowSyblIIDM/test/resources/battery.xiidm
<?xml version="1.0" encoding="UTF-8"?>
<iidm:network xmlns:iidm="http://www.powsybl.org/schema/iidm/1_5"
              xmlns:apc="http://www.powsybl.org/schema/iidm/ext/active_power_control/1_1"
              id="test" caseDate="2022-01-01T00:00:00.000+01:00" forecastDistance="0" sourceFormat="test">
    <iidm:substation id="S1" country="FR">
        <iidm:voltageLevel id="VL1" nominalV="382.0" lowVoltageLimit="340.0" highVoltageLimit="420.0" topologyKind="BUS_BREAKER">
            <iidm:busBreakerTopology>
                <iidm:bus id="VL1_BUS1"/>
            </iidm:busBreakerTopology>
            <iidm:battery id="BAT1" minP="2.5" maxP="30.0"
                p0="11.0" q0="9.0"
                bus="VL1_BUS1" connectableBus="VL1_BUS1">
                <iidm:reactiveCapabilityCurve>
                    <iidm:point p="0.0" minQ="-5.0" maxQ="5.0"/>
                    <iidm:point p="11.0" minQ="-5.0" maxQ="5.0"/>
                    <iidm:point p="30.0" minQ="-5.0" maxQ="5.0"/>
                </iidm:reactiveCapabilityCurve>
            </iidm:battery>
        </iidm:voltageLevel>
    </iidm:substation>
    <iidm:extension id="BAT1">
        <apc:activePowerControl participate="true" droop="2.0"/>
    </iidm:extension>
</iidm:network>
